10

C       -0.6648063837 -0.9331060016 -0.3207312709
C       0.8046300897 -0.9709098978 -0.0909279211
C       -1.1362910341 0.3211274238 -0.111108711
C       1.1725624458 0.2764697901 0.2533314294
C       0.0155318178 1.2406431716 0.2855310899
H       -1.2489053807 -1.7978430006 -0.6127724778
H       1.4252549174 -1.8505424877 -0.1908970469
H       0.1433703322 2.0729379306 -0.4201634927
H       -0.1323562699 1.6853346466 1.279230889
H       -2.1612835346 0.6575504249 -0.2006814878
